 CRYSTAL
 PRIMVEC
  -2.7146790801     0.0000000000     2.7146790801
   0.0000000000     2.7146790801     2.7146790801
  -2.7146790801     2.7146790801     0.0000000000
 CONVVEC
   5.4293581601     0.0000000000     0.0000000000
   0.0000000000     5.4293581601     0.0000000000
   0.0000000000     0.0000000000     5.4293581601
 PRIMCOORD
           2           1
SI      0.0000000000   0.0000000000   0.0000000000
SI      1.3573395400   1.3573395400   1.3573395400
