 CRYSTAL
 PRIMVEC
   2.4627907288     0.0000000000     0.0000000000
  -1.2313953644     2.1328393353     0.0000000000
   0.0000000000     0.0000000000     7.3883721863
 CONVVEC
   2.4627907288     0.0000000000     0.0000000000
  -1.2313953644     2.1328393353     0.0000000000
   0.0000000000     0.0000000000     7.3883721863
 PRIMCOORD
           2           1
C       0.0000000000   0.0000000000   0.0000000000
C       0.0000000000   1.4218929661   0.0000000000
