CRYSTAL
PRIMVEC
   3.8621100000     0.0000000000     0.0000000000
  -1.9310550000     3.3446853722     0.0000000000
   0.0000000000     0.0000000000    18.7921000000
PRIMCOORD
           2           1
Si     -0.0296607010   0.1051735960   0.1983989750
Si      1.8820527010   1.2089034040   0.6924220250
