 CRYSTAL
 PRIMVEC
   1.9250000000    -3.3110000000     0.0000000000
   1.9250000000     3.3110000000     0.0000000000
   0.0000000000     0.0000000000    12.0000000000
 CONVVEC
   1.9250000000    -3.3110000000     0.0000000000
   1.9250000000     3.3110000000     0.0000000000
   0.0000000000     0.0000000000    12.0000000000
 PRIMCOORD
           2           1
SI      0.0000000000   0.0000000000   0.0000000000
SI      1.9250000000   1.1257400000   0.0000000000
